Version 4
SHEET 1 17044 5732
WIRE 1472 -352 1328 -352
WIRE 1616 -352 1472 -352
WIRE 1744 -352 1616 -352
WIRE 1952 -352 1824 -352
WIRE 2112 -352 1952 -352
WIRE 2240 -352 2112 -352
WIRE 1616 -256 1616 -352
WIRE 1952 -256 1952 -352
WIRE -1024 -208 -1024 -320
WIRE -384 -208 -496 -208
WIRE -32 -208 -384 -208
WIRE 912 -176 912 -240
WIRE 2640 -176 2640 -240
WIRE -768 -160 -816 -160
WIRE -672 -160 -704 -160
WIRE 816 -112 32 -112
WIRE 2240 -112 2240 -352
WIRE 2544 -112 2240 -112
WIRE -496 -96 -496 -208
WIRE -416 -96 -496 -96
WIRE -208 -80 -352 -80
WIRE -32 -80 -32 -208
WIRE -32 -80 -128 -80
WIRE 32 -80 32 -112
WIRE 32 -80 -32 -80
WIRE 1328 -80 1328 -352
WIRE 1328 -80 1008 -80
WIRE 1616 -80 1616 -176
WIRE 1712 -80 1616 -80
WIRE 1952 -80 1952 -176
WIRE 1952 -80 1856 -80
WIRE 2736 -80 2720 -80
WIRE 2848 -80 2736 -80
WIRE 2960 -80 2848 -80
WIRE 4720 -80 4720 -128
WIRE 4768 -80 4768 -128
WIRE 4816 -80 4816 -128
WIRE 4864 -80 4864 -112
WIRE 5088 -80 5088 -128
WIRE 5136 -80 5136 -128
WIRE 5184 -80 5184 -128
WIRE 5232 -80 5232 -112
WIRE 5456 -80 5456 -128
WIRE 5504 -80 5504 -128
WIRE 5552 -80 5552 -128
WIRE 5600 -80 5600 -112
WIRE -1280 -64 -1344 -64
WIRE -1024 -64 -1024 -144
WIRE -1024 -64 -1280 -64
WIRE -816 -64 -816 -160
WIRE -816 -64 -1024 -64
WIRE -784 -64 -816 -64
WIRE -672 -64 -672 -160
WIRE -672 -64 -704 -64
WIRE -624 -64 -672 -64
WIRE -496 -64 -624 -64
WIRE -416 -64 -496 -64
WIRE 32 -48 32 -80
WIRE 352 -48 32 -48
WIRE 816 -48 416 -48
WIRE 2544 -48 2240 -48
WIRE 8528 -48 8528 -176
WIRE -1344 0 -1344 -64
WIRE 8688 0 8656 0
WIRE -1024 16 -1024 -64
WIRE -624 16 -624 -64
WIRE -496 16 -496 -64
WIRE 816 16 752 16
WIRE 1072 16 1008 16
WIRE 1616 16 1616 -80
WIRE 1952 16 1952 -80
WIRE 2544 16 2528 16
WIRE 2800 16 2736 16
WIRE 4688 16 4576 16
WIRE 5056 16 4944 16
WIRE 5424 16 5312 16
WIRE 5792 16 5680 16
WIRE 6832 16 6416 16
WIRE 7088 16 6912 16
WIRE 7936 32 7856 32
WIRE 8160 32 8016 32
WIRE 8304 32 8160 32
WIRE 8160 64 8160 32
WIRE 8304 80 8304 32
WIRE 9216 96 8656 96
WIRE 3536 128 3408 128
WIRE 3744 128 3616 128
WIRE 6848 128 6656 128
WIRE 7088 128 7088 16
WIRE 7088 128 6912 128
WIRE -624 144 -624 96
WIRE -560 144 -624 144
WIRE -496 144 -496 80
WIRE -496 144 -560 144
WIRE 4752 144 4752 112
WIRE 4864 144 4864 112
WIRE 5120 144 5120 112
WIRE 5232 144 5232 112
WIRE 5488 144 5488 112
WIRE 5600 144 5600 112
WIRE -1344 160 -1344 80
WIRE 7936 160 7856 160
WIRE 8160 160 8160 128
WIRE 8160 160 8016 160
WIRE 8304 160 8304 112
WIRE 8304 160 8160 160
WIRE 9216 160 9216 96
WIRE -560 176 -560 144
WIRE 848 192 848 128
WIRE 976 192 976 128
WIRE 1328 192 1328 -80
WIRE 1472 192 1328 192
WIRE 1616 192 1616 96
WIRE 1616 192 1472 192
WIRE 1744 192 1616 192
WIRE 1952 192 1952 96
WIRE 1952 192 1824 192
WIRE 2112 192 1952 192
WIRE 2240 192 2240 -48
WIRE 2240 192 2112 192
WIRE 2576 192 2576 128
WIRE 2704 192 2704 128
WIRE 8864 192 8656 192
WIRE 9008 192 8944 192
WIRE -1024 208 -1024 80
WIRE 4752 240 4752 208
WIRE 5120 240 5120 208
WIRE 5488 240 5488 208
WIRE 6272 272 6160 272
WIRE 6416 272 6416 16
WIRE 6416 272 6352 272
WIRE 6480 272 6416 272
WIRE 6656 272 6656 128
WIRE 6656 272 6560 272
WIRE 6848 272 6848 240
WIRE 7296 272 7168 272
WIRE 9008 272 9008 192
WIRE 9216 288 9216 224
WIRE 3520 304 3520 272
WIRE 4208 304 4016 304
WIRE 4368 304 4208 304
WIRE 2960 320 2960 -80
WIRE 2960 320 2800 320
WIRE 3168 320 2960 320
WIRE 3328 320 3248 320
WIRE 5792 320 5792 16
WIRE 5856 320 5792 320
WIRE 5888 320 5856 320
WIRE 8528 320 8528 240
WIRE 6416 336 6416 272
WIRE 6656 336 6656 272
WIRE 6816 336 6656 336
WIRE 7088 336 7088 128
WIRE 7088 336 6976 336
WIRE 7168 336 7168 272
WIRE 7168 336 7088 336
WIRE 3328 368 3328 320
WIRE 3408 368 3408 128
WIRE 3408 368 3328 368
WIRE 3488 368 3408 368
WIRE 3744 368 3744 128
WIRE 3744 368 3648 368
WIRE 3808 368 3744 368
WIRE 4016 368 4016 304
WIRE 4016 368 3808 368
WIRE 4208 368 4208 304
WIRE 4368 368 4368 304
WIRE 4576 368 4576 16
WIRE 4576 368 4368 368
WIRE 2800 384 2800 320
WIRE 6816 400 6656 400
WIRE 7088 400 6976 400
WIRE 7168 400 7088 400
WIRE 3408 432 3328 432
WIRE 3488 432 3408 432
WIRE 3744 432 3648 432
WIRE 3808 432 3744 432
WIRE 4016 432 3808 432
WIRE 4576 432 4368 432
WIRE 5856 448 5792 448
WIRE 5888 448 5856 448
WIRE 6272 464 6160 464
WIRE 6416 464 6416 400
WIRE 6416 464 6352 464
WIRE 6480 464 6416 464
WIRE 6656 464 6656 400
WIRE 6656 464 6560 464
WIRE 7168 464 7168 400
WIRE 7312 464 7168 464
WIRE 3168 480 2960 480
WIRE 3328 480 3328 432
WIRE 3328 480 3248 480
WIRE 4016 496 4016 432
WIRE 4208 496 4208 448
WIRE 4208 496 4016 496
WIRE 4368 496 4368 432
WIRE 4368 496 4208 496
WIRE 6848 496 6848 464
WIRE 6880 496 6880 464
WIRE 2800 528 2800 464
WIRE 3520 528 3520 496
WIRE 3552 528 3552 496
WIRE 8528 592 8528 464
WIRE 1472 608 1328 608
WIRE 1616 608 1472 608
WIRE 1744 608 1616 608
WIRE 1952 608 1824 608
WIRE 2112 608 1952 608
WIRE 2240 608 2112 608
WIRE 6656 608 6656 464
WIRE 6848 608 6656 608
WIRE 7088 608 7088 400
WIRE 7088 608 6912 608
WIRE 8688 640 8656 640
WIRE 4720 656 4720 608
WIRE 4768 656 4768 608
WIRE 4816 656 4816 608
WIRE 4864 656 4864 624
WIRE 5088 656 5088 608
WIRE 5136 656 5136 608
WIRE 5184 656 5184 608
WIRE 5232 656 5232 624
WIRE 5456 656 5456 608
WIRE 5504 656 5504 608
WIRE 5552 656 5552 608
WIRE 5600 656 5600 624
WIRE 3408 672 3408 432
WIRE 3536 672 3408 672
WIRE 3744 672 3744 432
WIRE 3744 672 3616 672
WIRE 7936 672 7856 672
WIRE 8160 672 8016 672
WIRE 8304 672 8160 672
WIRE 1616 704 1616 608
WIRE 1952 704 1952 608
WIRE 8160 704 8160 672
WIRE 6416 720 6416 464
WIRE 6832 720 6416 720
WIRE 7088 720 7088 608
WIRE 7088 720 6912 720
WIRE 8304 720 8304 672
WIRE 9216 736 8656 736
WIRE 4576 752 4576 432
WIRE 4688 752 4576 752
WIRE 5056 752 4944 752
WIRE 5424 752 5312 752
WIRE 5792 752 5792 448
WIRE 5792 752 5680 752
WIRE 912 784 912 720
WIRE 2640 784 2640 720
WIRE 7936 800 7856 800
WIRE 8160 800 8160 768
WIRE 8160 800 8016 800
WIRE 8304 800 8304 752
WIRE 8304 800 8160 800
WIRE 9216 800 9216 736
WIRE -512 832 -512 816
WIRE 8864 832 8656 832
WIRE 9008 832 8944 832
WIRE 816 848 272 848
WIRE 2240 848 2240 608
WIRE 2544 848 2240 848
WIRE -192 880 -304 880
WIRE -80 880 -192 880
WIRE 1328 880 1328 608
WIRE 1328 880 1008 880
WIRE 1616 880 1616 784
WIRE 1712 880 1616 880
WIRE 1952 880 1952 784
WIRE 1952 880 1856 880
WIRE 2736 880 2720 880
WIRE 2848 880 2736 880
WIRE 2960 880 2960 480
WIRE 2960 880 2848 880
WIRE 4752 880 4752 848
WIRE 4864 880 4864 848
WIRE 5120 880 5120 848
WIRE 5232 880 5232 848
WIRE 5488 880 5488 848
WIRE 5600 880 5600 848
WIRE 272 912 272 848
WIRE 544 912 400 912
WIRE 816 912 608 912
WIRE 2544 912 2240 912
WIRE 9008 912 9008 832
WIRE 9216 928 9216 864
WIRE -512 944 -512 912
WIRE 8528 960 8528 880
WIRE 400 976 400 912
WIRE 816 976 752 976
WIRE 1072 976 1008 976
WIRE 1616 976 1616 880
WIRE 1952 976 1952 880
WIRE 2544 976 2528 976
WIRE 2800 976 2736 976
WIRE 4752 976 4752 944
WIRE 5120 976 5120 944
WIRE 5488 976 5488 944
WIRE -224 1008 -224 960
WIRE -304 1024 -304 880
WIRE -256 1024 -304 1024
WIRE -80 1040 -80 880
WIRE -80 1040 -192 1040
WIRE 272 1040 272 992
WIRE 272 1040 -80 1040
WIRE -512 1056 -512 1024
WIRE -256 1056 -512 1056
WIRE -512 1088 -512 1056
WIRE 272 1088 272 1040
WIRE -224 1120 -224 1072
WIRE 400 1120 400 1056
WIRE 848 1152 848 1088
WIRE 976 1152 976 1088
WIRE 1328 1152 1328 880
WIRE 1472 1152 1328 1152
WIRE 1616 1152 1616 1056
WIRE 1616 1152 1472 1152
WIRE 1744 1152 1616 1152
WIRE 1952 1152 1952 1056
WIRE 1952 1152 1824 1152
WIRE 2112 1152 1952 1152
WIRE 2240 1152 2240 912
WIRE 2240 1152 2112 1152
WIRE 2576 1152 2576 1088
WIRE 2704 1152 2704 1088
WIRE -512 1200 -512 1168
WIRE 272 1200 272 1152
WIRE -512 1296 -512 1280
WIRE 7168 1344 7024 1344
WIRE 7376 1344 7232 1344
WIRE 7024 1456 7024 1344
WIRE 7168 1456 7024 1456
WIRE 7376 1456 7376 1344
WIRE 7376 1456 7248 1456
WIRE 1872 1616 1792 1616
WIRE 2032 1616 1952 1616
WIRE 6480 1664 6352 1664
WIRE 6688 1664 6560 1664
WIRE 6816 1664 6688 1664
WIRE 7024 1664 7024 1456
WIRE 7024 1664 6896 1664
WIRE 7152 1664 7024 1664
WIRE 2928 1712 2928 1664
WIRE 2928 1712 2816 1712
WIRE 3040 1712 2928 1712
WIRE 3456 1712 3456 1664
WIRE 3456 1712 3344 1712
WIRE 3568 1712 3456 1712
WIRE 3680 1712 3568 1712
WIRE 6688 1712 6688 1664
WIRE 7152 1712 7152 1664
WIRE 7184 1712 7152 1712
WIRE 1872 1744 1792 1744
WIRE 2032 1744 1952 1744
WIRE 7376 1744 7376 1456
WIRE 7376 1744 7328 1744
WIRE 7520 1744 7376 1744
WIRE 7728 1744 7600 1744
WIRE 8208 1744 7728 1744
WIRE 2816 1760 2816 1712
WIRE 2928 1760 2928 1712
WIRE 3344 1760 3344 1712
WIRE 3456 1760 3456 1712
WIRE 3568 1760 3568 1712
WIRE 8432 1760 8272 1760
WIRE 3040 1776 3040 1712
WIRE 3680 1776 3680 1712
WIRE 7184 1776 7152 1776
WIRE 8208 1776 8064 1776
WIRE 6480 1824 6352 1824
WIRE 6688 1824 6688 1776
WIRE 6688 1824 6560 1824
WIRE 6816 1824 6688 1824
WIRE 7024 1824 6896 1824
WIRE 7152 1824 7152 1776
WIRE 7152 1824 7024 1824
WIRE 7728 1840 7728 1744
WIRE 8240 1856 8240 1792
WIRE 1872 1872 1792 1872
WIRE 2032 1872 1952 1872
WIRE 5504 1872 5424 1872
WIRE 5664 1872 5584 1872
WIRE 7024 1872 7024 1824
WIRE 2816 1888 2816 1824
WIRE 2928 1888 2928 1840
WIRE 2928 1888 2816 1888
WIRE 3344 1888 3344 1824
WIRE 3456 1888 3456 1840
WIRE 3456 1888 3344 1888
WIRE 3568 1888 3568 1840
WIRE 3568 1888 3456 1888
WIRE 3040 1920 3040 1840
WIRE 3680 1920 3680 1840
WIRE 2928 1968 2928 1888
WIRE 3456 1968 3456 1888
WIRE 4016 1968 4016 1920
WIRE 4160 1968 4160 1920
WIRE 4304 1968 4304 1920
WIRE 4448 1968 4448 1920
WIRE 4592 1968 4592 1920
WIRE 4736 1968 4736 1920
WIRE 4880 1968 4880 1920
WIRE 5024 1968 5024 1920
WIRE 5168 1968 5168 1920
WIRE 7728 1984 7728 1904
WIRE 1872 2000 1808 2000
WIRE 2016 2000 1952 2000
WIRE 5504 2000 5424 2000
WIRE 5664 2000 5584 2000
WIRE 7024 2000 7024 1952
WIRE 2864 2016 2816 2016
WIRE 3392 2016 3344 2016
WIRE 1872 2128 1792 2128
WIRE 2032 2128 1952 2128
WIRE 4016 2128 4016 2048
WIRE 4160 2128 4160 2048
WIRE 4304 2128 4304 2048
WIRE 4448 2128 4448 2048
WIRE 4592 2128 4592 2048
WIRE 4736 2128 4736 2048
WIRE 4880 2128 4880 2048
WIRE 5024 2128 5024 2048
WIRE 5168 2128 5168 2048
WIRE 5504 2128 5424 2128
WIRE 5664 2128 5584 2128
WIRE 2928 2144 2928 2064
WIRE 3456 2144 3456 2064
FLAG -1024 -320 +Vcc
FLAG -1024 208 -Vcc
FLAG -1344 160 0
FLAG 976 192 0
FLAG 848 192 -Vcc
FLAG 912 -240 +Vcc
FLAG 752 16 AC_DC_Control
FLAG 1072 16 enable
FLAG 3520 272 +Vcc
FLAG 3520 528 -Vcc
FLAG 3552 528 Vocm
FLAG 3808 432 diff+
FLAG 3808 368 diff-
FLAG 400 1120 0
FLAG 912 720 +Vcc
FLAG 752 976 AC_DC_Control
FLAG 1072 976 enable
FLAG 272 1200 0
FLAG -224 1120 -Vcc
FLAG -224 960 +Vcc
FLAG -512 816 +Vcc
FLAG -512 1296 -Vcc
FLAG 8528 -176 V_REF
FLAG 8528 320 0
FLAG 9008 272 0
FLAG 9216 288 0
FLAG 2032 1616 +Vcc
FLAG 2032 1744 -Vcc
FLAG 976 1152 0
FLAG 848 1152 -Vcc
FLAG 5664 1872 enable
FLAG 5664 2128 Attenuator_Control
FLAG 2032 1872 V_ref
FLAG 9216 96 Vout
FLAG -1280 -64 input_signal
FLAG 5424 1872 0
FLAG 1792 1872 0
FLAG 5664 2000 AC_DC_Control
FLAG 2032 2128 Vocm
FLAG 5424 2000 0
FLAG 1792 2128 0
FLAG 5424 2128 0
FLAG 2928 1664 Vcc+
FLAG 2928 2144 0
FLAG 2816 2016 SPST_Relay_control
FLAG 3456 1664 Vcc+
FLAG 3456 2144 0
FLAG 3344 2016 DPST_Relay_control
FLAG 3040 1920 0
FLAG 3680 1920 0
FLAG 6848 240 +Vcc
FLAG 6848 496 -Vcc
FLAG 6880 496 Vocm
FLAG 8304 32 ADC_in+
FLAG 8304 160 ADC_in-
FLAG 7024 2000 0
FLAG 6352 1824 ADC_in+
FLAG 6352 1664 ADC_in-
FLAG 8064 1776 trigger_level
FLAG 8240 1728 +Vcc
FLAG 8432 1760 trigger_status
FLAG 1808 2000 0
FLAG 2016 2000 trigger_level
FLAG 8240 1856 0
FLAG 8688 0 +Vcc
FLAG 7216 1664 +Vcc
FLAG 7264 1824 +Vcc
FLAG 7216 1824 -Vcc
FLAG 7728 1984 0
FLAG 8528 464 V_REF
FLAG 8528 960 0
FLAG 9008 912 0
FLAG 9216 928 0
FLAG 9216 736 Vout
FLAG 8304 672 ADC_in+
FLAG 8304 800 ADC_in-
FLAG 8688 640 +Vcc
FLAG 4016 2128 0
FLAG 4160 2128 0
FLAG 4304 2128 0
FLAG 4016 1920 preAmp_bit0
FLAG 4160 1920 preAmp_bit1
FLAG 4304 1920 preAmp_bit2
FLAG 4720 -128 preAmp_bit0
FLAG 4768 -128 preAmp_bit1
FLAG 4816 -128 preAmp_bit2
FLAG 4864 -112 +Vcc
FLAG 4864 144 -Vcc
FLAG 4720 608 preAmp_bit0
FLAG 4768 608 preAmp_bit1
FLAG 4816 608 preAmp_bit2
FLAG 4864 624 +Vcc
FLAG 4864 880 -Vcc
FLAG 4752 240 0
FLAG 4752 976 0
FLAG 5232 -112 +Vcc
FLAG 5232 144 -Vcc
FLAG 5232 624 +Vcc
FLAG 5232 880 -Vcc
FLAG 5120 240 0
FLAG 5120 976 0
FLAG 4448 2128 0
FLAG 4592 2128 0
FLAG 4448 1920 preAmp_bit3
FLAG 4592 1920 preAmp_bit4
FLAG 4736 2128 0
FLAG 4736 1920 preAmp_bit5
FLAG 5088 608 preAmp_bit3
FLAG 5136 608 preAmp_bit4
FLAG 5184 608 preAmp_bit5
FLAG 5088 -128 preAmp_bit3
FLAG 5136 -128 preAmp_bit4
FLAG 5184 -128 preAmp_bit5
FLAG 7312 464 Aliasing_Filter+
FLAG 7296 272 Aliasing_Filter-
FLAG 7856 160 Aliasing_Filter-
FLAG 7856 32 Aliasing_Filter+
FLAG 7856 800 Aliasing_Filter-
FLAG 7856 672 Aliasing_Filter+
FLAG 6160 464 preamp-
FLAG 6160 272 preamp+
FLAG 1856 -80 0
FLAG 1712 -80 0
FLAG 2704 192 0
FLAG 2576 192 -Vcc
FLAG 2640 -240 +Vcc
FLAG 2800 16 enable
FLAG 1856 880 0
FLAG 1712 880 0
FLAG 2704 1152 0
FLAG 2576 1152 -Vcc
FLAG 2640 720 +Vcc
FLAG 2800 976 enable
FLAG 4880 2128 0
FLAG 5024 2128 0
FLAG 4880 1920 preAmp_bit6
FLAG 5024 1920 preAmp_bit7
FLAG 5168 2128 0
FLAG 5168 1920 preAmp_bit8
FLAG 2528 976 Attenuator_Control
FLAG 2528 16 Attenuator_Control
FLAG 1472 -352 +Attenuator_in51
FLAG 2112 -352 +Attenuator_out51
FLAG 1472 192 +Attenuator_in21
FLAG 2112 192 +Attenuator_out21
FLAG 2112 608 -Attenuator_out51
FLAG 2112 1152 -Attenuator_out21
FLAG 1472 608 -Attenuator_in51
FLAG 1472 1152 -Attenuator_in21
FLAG 2848 -80 +Attenuator_out
FLAG 2848 880 -Attenuator_out
FLAG 1792 1616 0
FLAG 1792 1744 0
FLAG -384 -112 +Vcc
FLAG -384 -48 -Vcc
FLAG -560 176 0
FLAG 2800 528 0
FLAG -384 -208 Probe_Out
FLAG -192 880 DC_offset
FLAG 5856 320 preamp+
FLAG 5856 448 preamp-
FLAG 5600 -112 +Vcc
FLAG 5600 144 -Vcc
FLAG 5600 624 +Vcc
FLAG 5600 880 -Vcc
FLAG 5488 240 0
FLAG 5488 976 0
FLAG 5456 608 preAmp_bit6
FLAG 5504 608 preAmp_bit7
FLAG 5552 608 preAmp_bit8
FLAG 5456 -128 preAmp_bit6
FLAG 5504 -128 preAmp_bit7
FLAG 5552 -128 preAmp_bit8
SYMBOL voltage -1344 -16 R0
WINDOW 123 -261 32 Left 2
WINDOW 39 0 0 Left 0
WINDOW 3 -265 7 Left 2
SYMATTR Value SINE(2 0.1 1meg 0.5us)
SYMATTR InstName V1
SYMBOL schottky -1008 -144 R180
WINDOW 0 24 64 Left 2
WINDOW 3 24 0 Left 2
SYMATTR InstName D1
SYMATTR Value 1N5817
SYMBOL schottky -1008 80 R180
WINDOW 0 24 64 Left 2
WINDOW 3 24 0 Left 2
SYMATTR InstName D2
SYMATTR Value 1N5817
SYMBOL cap 416 -64 R90
WINDOW 0 0 32 VBottom 2
WINDOW 3 32 32 VTop 2
SYMATTR InstName C1
SYMATTR Value 0.1µF
SYMBOL OpAmps\\AD8137 3520 400 R0
SYMATTR InstName U2
SYMBOL res 3632 112 R90
WINDOW 0 0 56 VBottom 2
WINDOW 3 32 56 VTop 2
SYMATTR InstName RF2
SYMATTR Value 1k
SYMBOL res 3632 656 R90
WINDOW 0 0 56 VBottom 2
WINDOW 3 32 56 VTop 2
SYMATTR InstName RF1
SYMATTR Value 1k
SYMBOL res 384 960 R0
SYMATTR InstName R1
SYMATTR Value 50
SYMBOL cap 608 896 R90
WINDOW 0 0 32 VBottom 2
WINDOW 3 32 32 VTop 2
SYMATTR InstName C2
SYMATTR Value 0.1µF
SYMBOL res 256 896 R0
SYMATTR InstName R2
SYMATTR Value 50
SYMBOL cap 256 1088 R0
SYMATTR InstName C3
SYMATTR Value 0.1µF
SYMBOL res -496 1184 R180
WINDOW 0 36 76 Left 2
WINDOW 3 36 40 Left 2
SYMATTR InstName R3
SYMATTR Value {R_pot2}
SYMBOL res -496 1040 R180
WINDOW 0 36 76 Left 2
WINDOW 3 36 40 Left 2
SYMATTR InstName R4
SYMATTR Value {R_pot1}
SYMBOL voltage 8848 192 R270
WINDOW 0 32 56 VTop 2
WINDOW 3 -32 56 VBottom 2
SYMATTR InstName V2
SYMATTR Value PULSE(0 1.8 100n .2n .2n 9.8n 100n)
SYMBOL cap 9200 160 R0
SYMATTR InstName C4
SYMATTR Value 10pf
SYMBOL Switches\\ADG1419 912 -32 R0
SYMATTR InstName U6
SYMBOL Switches\\ADG1419 912 928 R0
SYMATTR InstName U7
SYMBOL res 3264 304 R90
WINDOW 0 0 56 VBottom 2
WINDOW 3 32 56 VTop 2
SYMATTR InstName RG2
SYMATTR Value 1k
SYMBOL res 3152 496 R270
WINDOW 0 32 56 VTop 2
WINDOW 3 0 56 VBottom 2
SYMATTR InstName RG1
SYMATTR Value 1k
SYMBOL voltage 5600 1872 R90
WINDOW 0 -32 56 VBottom 2
WINDOW 3 32 56 VTop 2
WINDOW 123 0 0 Left 0
WINDOW 39 0 0 Left 0
SYMATTR InstName V7
SYMATTR Value 5
SYMBOL voltage 1968 1872 R90
WINDOW 0 -32 56 VBottom 2
WINDOW 3 32 56 VTop 2
WINDOW 123 0 0 Left 0
WINDOW 39 0 0 Left 0
SYMATTR InstName V9
SYMATTR Value 4.096
SYMBOL voltage 5600 2000 R90
WINDOW 0 -32 56 VBottom 2
WINDOW 3 32 56 VTop 2
WINDOW 123 0 0 Left 0
WINDOW 39 0 0 Left 0
SYMATTR InstName V8
SYMATTR Value 0
SYMBOL voltage 1968 2128 R90
WINDOW 0 -32 56 VBottom 2
WINDOW 3 32 56 VTop 2
WINDOW 123 0 0 Left 0
WINDOW 39 0 0 Left 0
SYMATTR InstName V10
SYMATTR Value 0
SYMBOL voltage 5600 2128 R90
WINDOW 0 -32 56 VBottom 2
WINDOW 3 32 56 VTop 2
WINDOW 123 0 0 Left 0
WINDOW 39 0 0 Left 0
SYMATTR InstName V11
SYMATTR Value 0
SYMBOL ind 2944 1856 R180
WINDOW 0 36 80 Left 2
WINDOW 3 36 40 Left 2
SYMATTR InstName L1
SYMATTR Value 60mH
SYMBOL diode 2832 1824 R180
WINDOW 0 24 64 Left 2
WINDOW 3 24 0 Left 2
SYMATTR InstName D3
SYMBOL npn 2864 1968 R0
SYMATTR InstName Q1
SYMBOL ind 3472 1856 R180
WINDOW 0 36 80 Left 2
WINDOW 3 36 40 Left 2
SYMATTR InstName L2
SYMATTR Value 60mH
SYMBOL diode 3360 1824 R180
WINDOW 0 24 64 Left 2
WINDOW 3 24 0 Left 2
SYMATTR InstName D4
SYMBOL npn 3392 1968 R0
SYMATTR InstName Q2
SYMBOL ind 3584 1856 R180
WINDOW 0 36 80 Left 2
WINDOW 3 36 40 Left 2
SYMATTR InstName L3
SYMATTR Value 60mH
SYMBOL cap 3024 1776 R0
SYMATTR InstName C5
SYMATTR Value 1µF
SYMBOL cap 3664 1776 R0
SYMATTR InstName C6
SYMATTR Value 1µF
SYMBOL OpAmps\\AD8137 6848 368 R0
SYMATTR InstName U4
SYMBOL res 6576 256 R90
WINDOW 0 0 56 VBottom 2
WINDOW 3 32 56 VTop 2
SYMATTR InstName R13
SYMATTR Value 6.04k
SYMBOL res 6368 256 R90
WINDOW 0 0 56 VBottom 2
WINDOW 3 32 56 VTop 2
SYMATTR InstName R14
SYMATTR Value 10.5k
SYMBOL cap 6400 336 R0
SYMATTR InstName C11
SYMATTR Value 20.1pF
SYMBOL res 6576 448 R90
WINDOW 0 0 56 VBottom 2
WINDOW 3 32 56 VTop 2
SYMATTR InstName R15
SYMATTR Value 6.04k
SYMBOL res 6368 448 R90
WINDOW 0 0 56 VBottom 2
WINDOW 3 32 56 VTop 2
SYMATTR InstName R16
SYMATTR Value 10.5k
SYMBOL res 6928 0 R90
WINDOW 0 0 56 VBottom 2
WINDOW 3 32 56 VTop 2
SYMATTR InstName R17
SYMATTR Value 10.5k
SYMBOL cap 6912 112 R90
WINDOW 0 0 32 VBottom 2
WINDOW 3 32 32 VTop 2
SYMATTR InstName C12
SYMATTR Value 10pF
SYMBOL res 6928 736 M270
WINDOW 0 32 56 VTop 2
WINDOW 3 0 56 VBottom 2
SYMATTR InstName R18
SYMATTR Value 10.5k
SYMBOL cap 6912 624 M270
WINDOW 0 32 32 VTop 2
WINDOW 3 0 32 VBottom 2
SYMATTR InstName C13
SYMATTR Value 10pF
SYMBOL cap 8144 64 R0
SYMATTR InstName C7
SYMATTR Value 500pF
SYMBOL res 6576 1648 R90
WINDOW 0 0 56 VBottom 2
WINDOW 3 32 56 VTop 2
SYMATTR InstName R27
SYMATTR Value 50
SYMBOL res 7008 1856 R0
SYMATTR InstName R31
SYMATTR Value 101
SYMBOL res 6576 1808 R90
WINDOW 0 0 56 VBottom 2
WINDOW 3 32 56 VTop 2
SYMATTR InstName R33
SYMATTR Value 50
SYMBOL voltage 1968 2000 R90
WINDOW 123 0 0 Left 0
WINDOW 39 0 0 Left 0
SYMATTR InstName V5
SYMATTR Value 0
SYMBOL ADC\\LTC2387-16 8560 96 R0
SYMATTR InstName U5
SYMBOL OpAmps\\LTC6228 7216 1744 R0
SYMATTR InstName U12
SYMBOL cap 6672 1712 R0
SYMATTR InstName C17
SYMATTR Value 18pF
SYMBOL res 6800 1680 R270
WINDOW 0 32 56 VTop 2
WINDOW 3 0 56 VBottom 2
SYMATTR InstName R25
SYMATTR Value 348
SYMBOL res 6800 1840 R270
WINDOW 0 32 56 VTop 2
WINDOW 3 0 56 VBottom 2
SYMATTR InstName R26
SYMATTR Value 150
SYMBOL res 7264 1440 R90
WINDOW 0 0 56 VBottom 2
WINDOW 3 32 56 VTop 2
SYMATTR InstName R28
SYMATTR Value 200
SYMBOL cap 7232 1328 R90
WINDOW 0 0 32 VBottom 2
WINDOW 3 32 32 VTop 2
SYMATTR InstName C18
SYMATTR Value 18pF
SYMBOL Comparators\\LTC6752 8240 1696 R0
SYMATTR InstName U10
SYMBOL res 7616 1728 R90
WINDOW 0 0 56 VBottom 2
WINDOW 3 32 56 VTop 2
SYMATTR InstName R29
SYMATTR Value 50
SYMBOL cap 7712 1840 R0
SYMATTR InstName C19
SYMATTR Value 1nF
SYMBOL voltage 8848 832 R270
WINDOW 0 32 56 VTop 2
WINDOW 3 -32 56 VBottom 2
WINDOW 123 0 0 Left 0
WINDOW 39 0 0 Left 0
SYMATTR InstName V6
SYMATTR Value PULSE(0 1.8 150n .2n .2n 9.8n 100n)
SYMBOL cap 9200 800 R0
SYMATTR InstName C20
SYMATTR Value 10pf
SYMBOL res 8032 656 R90
WINDOW 0 0 56 VBottom 2
WINDOW 3 32 56 VTop 2
SYMATTR InstName R30
SYMATTR Value 15
SYMBOL res 8032 784 R90
WINDOW 0 0 56 VBottom 2
WINDOW 3 32 56 VTop 2
SYMATTR InstName R32
SYMATTR Value 15
SYMBOL cap 8144 704 R0
SYMATTR InstName C21
SYMATTR Value 500pF
SYMBOL ADC\\LTC2387-16 8560 736 R0
SYMATTR InstName U1
SYMBOL OpAmps\\LTC6910-3 4800 16 R0
SYMATTR InstName U13
SYMBOL voltage 4016 1952 R0
WINDOW 123 0 0 Left 0
WINDOW 39 0 0 Left 0
SYMATTR InstName V13
SYMATTR Value 5
SYMBOL voltage 4160 1952 R0
WINDOW 123 0 0 Left 0
WINDOW 39 0 0 Left 0
SYMATTR InstName V14
SYMATTR Value 5
SYMBOL voltage 4304 1952 R0
WINDOW 123 0 0 Left 0
WINDOW 39 0 0 Left 0
SYMATTR InstName V15
SYMATTR Value 5
SYMBOL OpAmps\\LTC6910-3 4800 752 R0
SYMATTR InstName U14
SYMBOL cap 4736 144 R0
SYMATTR InstName C22
SYMATTR Value 1µf
SYMBOL cap 4736 880 R0
SYMATTR InstName C23
SYMATTR Value 1µf
SYMBOL OpAmps\\LTC6910-3 5168 16 R0
SYMATTR InstName U8
SYMBOL OpAmps\\LTC6910-3 5168 752 R0
SYMATTR InstName U15
SYMBOL cap 5104 144 R0
SYMATTR InstName C24
SYMATTR Value 1µf
SYMBOL cap 5104 880 R0
SYMATTR InstName C25
SYMATTR Value 1µf
SYMBOL voltage 4448 1952 R0
WINDOW 123 0 0 Left 0
WINDOW 39 0 0 Left 0
SYMATTR InstName V16
SYMATTR Value 5
SYMBOL voltage 4592 1952 R0
WINDOW 123 0 0 Left 0
WINDOW 39 0 0 Left 0
SYMATTR InstName V17
SYMATTR Value 5
SYMBOL voltage 4736 1952 R0
WINDOW 123 0 0 Left 0
WINDOW 39 0 0 Left 0
SYMATTR InstName V18
SYMATTR Value 5
SYMBOL res 1600 -272 R0
SYMATTR InstName PI_Rp5
SYMATTR Value 75
SYMBOL res 1968 -160 R180
WINDOW 0 36 76 Left 2
WINDOW 3 36 40 Left 2
SYMATTR InstName PI_Rp6
SYMATTR Value 75
SYMBOL res 1840 -368 R90
WINDOW 0 0 56 VBottom 2
WINDOW 3 32 56 VTop 2
SYMATTR InstName PI_Rs3
SYMATTR Value 120
SYMBOL res 1968 112 R180
WINDOW 0 36 76 Left 2
WINDOW 3 36 40 Left 2
SYMATTR InstName PI_Rp7
SYMATTR Value 150
SYMBOL res 1600 0 R0
SYMATTR InstName PI_Rp8
SYMATTR Value 150
SYMBOL res 1728 208 R270
WINDOW 0 32 56 VTop 2
WINDOW 3 0 56 VBottom 2
SYMATTR InstName PI_Rs4
SYMATTR Value 37.5
SYMBOL Switches\\ADG1419 2640 -32 R0
SYMATTR InstName U9
SYMBOL res 1600 688 R0
SYMATTR InstName PI_Rp1
SYMATTR Value 75
SYMBOL res 1968 800 R180
WINDOW 0 36 76 Left 2
WINDOW 3 36 40 Left 2
SYMATTR InstName PI_Rp2
SYMATTR Value 75
SYMBOL res 1840 592 R90
WINDOW 0 0 56 VBottom 2
WINDOW 3 32 56 VTop 2
SYMATTR InstName PI_Rs1
SYMATTR Value 120
SYMBOL res 1968 1072 R180
WINDOW 0 36 76 Left 2
WINDOW 3 36 40 Left 2
SYMATTR InstName PI_Rp3
SYMATTR Value 150
SYMBOL res 1600 960 R0
SYMATTR InstName PI_Rp4
SYMATTR Value 150
SYMBOL res 1728 1168 R270
WINDOW 0 32 56 VTop 2
WINDOW 3 0 56 VBottom 2
SYMATTR InstName PI_Rs2
SYMATTR Value 37.5
SYMBOL Switches\\ADG1419 2640 928 R0
SYMATTR InstName U16
SYMBOL voltage 4880 1952 R0
WINDOW 123 0 0 Left 0
WINDOW 39 0 0 Left 0
SYMATTR InstName V19
SYMATTR Value 5
SYMBOL voltage 5024 1952 R0
WINDOW 123 0 0 Left 0
WINDOW 39 0 0 Left 0
SYMATTR InstName V20
SYMATTR Value 5
SYMBOL voltage 5168 1952 R0
WINDOW 123 0 0 Left 0
WINDOW 39 0 0 Left 0
SYMATTR InstName V21
SYMATTR Value 0
SYMBOL voltage 1968 1616 R90
WINDOW 0 -32 56 VBottom 2
WINDOW 3 32 56 VTop 2
WINDOW 123 0 0 Left 0
WINDOW 39 0 0 Left 0
SYMATTR InstName V12
SYMATTR Value 5
SYMBOL voltage 1968 1744 R90
WINDOW 0 -32 56 VBottom 2
WINDOW 3 32 56 VTop 2
WINDOW 123 0 0 Left 0
WINDOW 39 0 0 Left 0
SYMATTR InstName V22
SYMATTR Value -5
SYMBOL res -688 -80 R90
WINDOW 0 0 56 VBottom 2
WINDOW 3 32 56 VTop 2
SYMATTR InstName R7
SYMATTR Value 900k
SYMBOL res -608 112 R180
WINDOW 0 36 76 Left 2
WINDOW 3 36 40 Left 2
SYMATTR InstName R8
SYMATTR Value 100k
SYMBOL res 2784 368 R0
SYMATTR InstName RT
SYMATTR Value 50
SYMBOL res 4224 464 R180
WINDOW 0 36 76 Left 2
WINDOW 3 36 40 Left 2
SYMATTR InstName R11
SYMATTR Value 50
SYMBOL res 8032 16 R90
WINDOW 0 0 56 VBottom 2
WINDOW 3 32 56 VTop 2
SYMATTR InstName R5
SYMATTR Value 15
SYMBOL res 8032 144 R90
WINDOW 0 0 56 VBottom 2
WINDOW 3 32 56 VTop 2
SYMATTR InstName R6
SYMATTR Value 15
SYMBOL OpAmps\\ADA4891-2 -224 976 R0
SYMATTR InstName U17
SYMBOL OpAmps\\ADA4891-2 -384 -144 R0
SYMATTR InstName U19
SYMBOL res -528 816 R0
SYMATTR InstName R12
SYMATTR Value 500
SYMBOL res -528 1184 R0
SYMATTR InstName R19
SYMATTR Value 500
SYMBOL OpAmps\\LTC6910-3 5536 16 R0
SYMATTR InstName U3
SYMBOL OpAmps\\LTC6910-3 5536 752 R0
SYMATTR InstName U11
SYMBOL cap 5472 144 R0
SYMATTR InstName C8
SYMATTR Value 1µf
SYMBOL cap 5472 880 R0
SYMATTR InstName C9
SYMATTR Value 1µf
SYMBOL cap -704 -176 R90
WINDOW 0 0 32 VBottom 2
WINDOW 3 32 32 VTop 2
SYMATTR InstName C10
SYMATTR Value 10pF
SYMBOL cap -480 80 R180
WINDOW 0 24 56 Left 2
WINDOW 3 24 8 Left 2
SYMATTR InstName C14
SYMATTR Value 90pF
SYMBOL res -112 -96 R90
WINDOW 0 0 56 VBottom 2
WINDOW 3 32 56 VTop 2
SYMATTR InstName R9
SYMATTR Value 15
TEXT 552 -128 Left 2 ;DC Path
TEXT 552 -64 Left 2 ;AC Path
TEXT 3048 -96 Left 2 ;Single-end-to-differential Converter - Terminated with 50 Ohm Input Impedance\nDC offset error = Preamp Gain*(3.41+22*(input signal DC offset)) mV
TEXT -1184 -416 Left 2 ;Protection diodes
TEXT 632 832 Left 2 ;DC Path
TEXT 632 896 Left 2 ;AC Path
TEXT 112 -416 Left 2 ;AC/DC Coupling
TEXT -456 688 Right 2 ;DC Offset Control
TEXT 4448 -320 Left 2 ;Variable Gain Pre-Amplification Stage
TEXT 5392 1792 Left 2 ;Switch Control Signals
TEXT 1760 1536 Left 2 ;Power Supply and Reference Voltages
TEXT 616 1568 Left 2 !.tran 0 1ms 0 0.1us
TEXT 6016 -120 Left 2 ;2nd Order Butterworth Anti-Aliasing Filter with multiple feedback topology - 1MHz cutoff frequency
TEXT 6240 1232 Left 2 ;Differential to Single-ended Conversion
TEXT 7912 1592 Left 2 ;Compare with trigger level
TEXT 7896 -56 Left 2 ;Charge Bucket Filter
TEXT 7896 584 Left 2 ;Charge Bucket Filter
TEXT 3920 1680 Left 2 ;Variable Gain Stage Control Signals
TEXT 2560 1568 Left 2 ;Relay Control Circuits
TEXT 256 1536 Left 2 ;Simulation Commands and Parameters
TEXT 616 1600 Left 2 !;ac dec 100 10 1000Meg
TEXT 4000 -64 Left 2 ;50 Ohm Load Termination
TEXT 1664 272 Left 2 ;2:1 Attenuation Path
TEXT 1664 -432 Left 2 ;5:1 Attenuation Path
TEXT 1664 1232 Left 2 ;2:1 Attenuation Path
TEXT 1664 528 Left 2 ;5:1 Attenuation Path
TEXT 112 544 Left 2 ;AC/DC Coupling
TEXT 1280 -480 Left 2 ;Variable Attenuation Stage - Matched to 50 Ohms
TEXT 1280 480 Left 2 ;Variable Attenuation Stage - Matched to 50 Ohms
TEXT 7600 -288 Left 2 ;16-bit 15MSPS SAR Analog-to-Digital-Converter
TEXT 6192 1168 Left 2 ;Trigger Circuitry
TEXT 5904 1984 Left 2 ;0 = DC Path\n5 = AC Path
TEXT 5904 2112 Left 2 ;0 = 5:1 Path\n5 = 2:1 Path
TEXT 2136 1616 Left 2 ;Positive Supply Voltage
TEXT 2136 1736 Left 2 ;Negative Supply Voltage
TEXT 2144 1872 Left 2 ;ADC Reference Voltage
TEXT 2176 2000 Left 2 ;Trigger Level Voltage
TEXT 2136 2120 Left 2 ;Common-Mode Voltage
TEXT -848 -320 Left 2 ;Compensated 10:1 Divider Input Probe\n1Meg Ohm Input Resistance
TEXT 616 1632 Left 2 !.param R_pot1=5k R_pot2=5k
TEXT 616 1672 Left 2 !.param R_termination=50 A1=0.5 A2=0.2
TEXT 616 1752 Left 2 !.param Rs_21=R_termination*Rp_21/(R_termination+Rp_21)*(1-A1)/A1
TEXT 616 1816 Left 2 !.param Rs_51=R_termination*Rp_51/(R_termination+Rp_51)*(1-A2)/A2
TEXT 616 1720 Left 2 !.param Rp_21=R_termination*((1+A1)/(1-A1))
TEXT 616 1784 Left 2 !.param Rp_51=R_termination*((1+A2)/(1-A2))
TEXT 280 1728 Left 2 ;Rp for 2:1 Attenuator
TEXT 280 1760 Left 2 ;Rs for 2:1 Attenuator
TEXT 280 1792 Left 2 ;Rp for 5:1 Attenuator
TEXT 280 1824 Left 2 ;Rs for 5:1 Attenuator
TEXT 280 1664 Left 2 ;AD8137 Input Termination\nand Attenuation values
TEXT 280 1632 Left 2 ;Potentiometer Resistances
TEXT 280 1568 Left 2 ;Transient Simulation
TEXT 280 1600 Left 2 ;AC sweep
LINE Normal 6064 2064 6064 1936 2
LINE Normal 5392 2192 5392 2064 2
LINE Normal 6064 2192 5392 2192 2
LINE Normal 5392 1808 6064 1808 2
LINE Normal 1760 1552 2432 1552 2
LINE Normal 2432 1808 2432 1680 2
LINE Normal 2432 2064 2432 1936 2
RECTANGLE Normal 3936 800 3056 -48 2
RECTANGLE Normal 8240 224 7888 -32 2
RECTANGLE Normal 7904 1616 8400 1952 2
RECTANGLE Normal 8240 864 7888 608 2
RECTANGLE Normal 2560 1584 3792 2192 2
RECTANGLE Normal 1632 1984 608 1552 2
RECTANGLE Normal 7536 848 6016 -96 2
RECTANGLE Normal 7824 2128 6240 1248 2
RECTANGLE Normal 1584 -416 1984 -112 2
RECTANGLE Normal 1584 -48 1984 256 2
RECTANGLE Normal 1584 544 1984 848 2
RECTANGLE Normal 1584 912 1984 1216 2
RECTANGLE Normal 1280 1264 2288 496 2
RECTANGLE Normal 1280 304 2288 -464 2
RECTANGLE Normal 1216 304 112 -400 2
RECTANGLE Normal 7600 -272 9360 1008 2
RECTANGLE Normal 6192 1184 8592 2192 2
RECTANGLE Normal 3920 2192 5264 1696 2
RECTANGLE Normal 6064 2192 5392 1808 2
RECTANGLE Normal 6064 1936 5392 1808 2
RECTANGLE Normal 6064 2064 5392 1936 2
RECTANGLE Normal 2432 1680 1760 1552 2
RECTANGLE Normal 2432 1936 1760 1552 2
RECTANGLE Normal 2432 1808 1760 1680 2
RECTANGLE Normal 2432 2192 1760 1808 2
RECTANGLE Normal 2432 2064 1760 1936 2
RECTANGLE Normal -912 304 -1184 -400 2
RECTANGLE Normal 256 1984 608 1552 2
RECTANGLE Normal 256 1840 608 1808 2
RECTANGLE Normal 256 1808 608 1776 2
RECTANGLE Normal 256 1776 608 1744 2
RECTANGLE Normal 256 1744 608 1712 2
RECTANGLE Normal 256 1648 608 1616 2
RECTANGLE Normal 256 1584 608 1552 2
RECTANGLE Normal -656 704 48 1360 2
RECTANGLE Normal 1216 1360 112 560 2
RECTANGLE Normal 4384 800 4000 -48 2
RECTANGLE Normal 5936 1024 4448 -304 2
RECTANGLE Normal 16 304 -848 -272 2
